*SPEF "ieee 1481-1999"
*DESIGN "adder64"
*DATE "18:51:18 Thursday January 08, 2026"
*VENDOR "The OpenROAD Project"
*PROGRAM "OpenROAD"
*VERSION "v2.0-27463-gc3bd3a2184"
*DESIGN_FLOW "NAME_SCOPE LOCAL" "PIN_CAP NONE"
*DIVIDER /
*DELIMITER :
*BUS_DELIMITER []
*T_UNIT 1 NS
*C_UNIT 1 PF
*R_UNIT 1 OHM
*L_UNIT 1 HENRY

*NAME_MAP
*1 A[0]
*2 A[10]
*3 A[11]
*4 A[12]
*5 A[13]
*6 A[14]
*7 A[15]
*8 A[16]
*9 A[17]
*10 A[18]
*11 A[19]
*12 A[1]
*13 A[20]
*14 A[21]
*15 A[22]
*16 A[23]
*17 A[24]
*18 A[25]
*19 A[26]
*20 A[27]
*21 A[28]
*22 A[29]
*23 A[2]
*24 A[30]
*25 A[31]
*26 A[32]
*27 A[33]
*28 A[34]
*29 A[35]
*30 A[36]
*31 A[37]
*32 A[38]
*33 A[39]
*34 A[3]
*35 A[40]
*36 A[41]
*37 A[42]
*38 A[43]
*39 A[44]
*40 A[45]
*41 A[46]
*42 A[47]
*43 A[48]
*44 A[49]
*45 A[4]
*46 A[50]
*47 A[51]
*48 A[52]
*49 A[53]
*50 A[54]
*51 A[55]
*52 A[56]
*53 A[57]
*54 A[58]
*55 A[59]
*56 A[5]
*57 A[60]
*58 A[61]
*59 A[62]
*60 A[63]
*61 A[6]
*62 A[7]
*63 A[8]
*64 A[9]
*65 B[0]
*66 B[10]
*67 B[11]
*68 B[12]
*69 B[13]
*70 B[14]
*71 B[15]
*72 B[16]
*73 B[17]
*74 B[18]
*75 B[19]
*76 B[1]
*77 B[20]
*78 B[21]
*79 B[22]
*80 B[23]
*81 B[24]
*82 B[25]
*83 B[26]
*84 B[27]
*85 B[28]
*86 B[29]
*87 B[2]
*88 B[30]
*89 B[31]
*90 B[32]
*91 B[33]
*92 B[34]
*93 B[35]
*94 B[36]
*95 B[37]
*96 B[38]
*97 B[39]
*98 B[3]
*99 B[40]
*100 B[41]
*101 B[42]
*102 B[43]
*103 B[44]
*104 B[45]
*105 B[46]
*106 B[47]
*107 B[48]
*108 B[49]
*109 B[4]
*110 B[50]
*111 B[51]
*112 B[52]
*113 B[53]
*114 B[54]
*115 B[55]
*116 B[56]
*117 B[57]
*118 B[58]
*119 B[59]
*120 B[5]
*121 B[60]
*122 B[61]
*123 B[62]
*124 B[63]
*125 B[6]
*126 B[7]
*127 B[8]
*128 B[9]
*129 C32
*130 Cin
*131 net130
*132 net131
*133 net132
*134 net133
*135 net134
*136 net135
*137 net136
*138 net137
*139 net138
*140 net139
*141 net140
*142 net141
*143 net142
*144 net143
*145 net144
*146 net145
*147 net146
*148 net147
*149 net148
*150 net149
*151 net150
*152 net151
*153 net152
*154 net153
*155 net154
*156 net155
*157 net156
*158 net157
*159 net158
*160 net159
*161 net160
*162 net161
*163 net162
*164 net163
*165 net164
*166 net165
*167 net166
*168 net167
*169 net168
*170 net169
*171 net170
*172 net171
*173 net172
*174 net173
*175 net174
*176 net175
*177 net176
*178 net177
*179 net178
*180 net179
*181 net180
*182 net181
*183 net182
*184 net183
*185 net184
*186 net185
*187 net186
*188 net187
*189 net188
*190 net189
*191 net190
*192 net191
*193 net192
*194 net193
*195 net194
*196 u0\.C16
*197 u0\.u0\.C8
*198 u0\.u0\.u0\.C4
*199 u0\.u0\.u0\.u0\._01_
*200 u0\.u0\.u0\.u0\._02_
*201 u0\.u0\.u0\.u0\._03_
*202 u0\.u0\.u0\.u0\._04_
*203 u0\.u0\.u0\.u0\._05_
*204 u0\.u0\.u0\.u0\._06_
*205 u0\.u0\.u0\.u0\._07_
*206 u0\.u0\.u0\.u1\._01_
*207 u0\.u0\.u0\.u1\._02_
*208 u0\.u0\.u0\.u1\._03_
*209 u0\.u0\.u0\.u1\._04_
*210 u0\.u0\.u0\.u1\._05_
*211 u0\.u0\.u0\.u1\._06_
*212 u0\.u0\.u0\.u1\._07_
*213 u0\.u0\.u1\.C4
*214 u0\.u0\.u1\.u0\._01_
*215 u0\.u0\.u1\.u0\._02_
*216 u0\.u0\.u1\.u0\._03_
*217 u0\.u0\.u1\.u0\._04_
*218 u0\.u0\.u1\.u0\._05_
*219 u0\.u0\.u1\.u0\._06_
*220 u0\.u0\.u1\.u0\._07_
*221 u0\.u0\.u1\.u1\._01_
*222 u0\.u0\.u1\.u1\._02_
*223 u0\.u0\.u1\.u1\._03_
*224 u0\.u0\.u1\.u1\._04_
*225 u0\.u0\.u1\.u1\._05_
*226 u0\.u0\.u1\.u1\._06_
*227 u0\.u0\.u1\.u1\._07_
*228 u0\.u1\.C8
*229 u0\.u1\.u0\.C4
*230 u0\.u1\.u0\.u0\._01_
*231 u0\.u1\.u0\.u0\._02_
*232 u0\.u1\.u0\.u0\._03_
*233 u0\.u1\.u0\.u0\._04_
*234 u0\.u1\.u0\.u0\._05_
*235 u0\.u1\.u0\.u0\._06_
*236 u0\.u1\.u0\.u0\._07_
*237 u0\.u1\.u0\.u1\._01_
*238 u0\.u1\.u0\.u1\._02_
*239 u0\.u1\.u0\.u1\._03_
*240 u0\.u1\.u0\.u1\._04_
*241 u0\.u1\.u0\.u1\._05_
*242 u0\.u1\.u0\.u1\._06_
*243 u0\.u1\.u0\.u1\._07_
*244 u0\.u1\.u1\.C4
*245 u0\.u1\.u1\.u0\._01_
*246 u0\.u1\.u1\.u0\._02_
*247 u0\.u1\.u1\.u0\._03_
*248 u0\.u1\.u1\.u0\._04_
*249 u0\.u1\.u1\.u0\._05_
*250 u0\.u1\.u1\.u0\._06_
*251 u0\.u1\.u1\.u0\._07_
*252 u0\.u1\.u1\.u1\._01_
*253 u0\.u1\.u1\.u1\._02_
*254 u0\.u1\.u1\.u1\._03_
*255 u0\.u1\.u1\.u1\._04_
*256 u0\.u1\.u1\.u1\._05_
*257 u0\.u1\.u1\.u1\._06_
*258 u0\.u1\.u1\.u1\._07_
*259 u1\.C16
*260 u1\.u0\.C8
*261 u1\.u0\.u0\.C4
*262 u1\.u0\.u0\.u0\._01_
*263 u1\.u0\.u0\.u0\._02_
*264 u1\.u0\.u0\.u0\._03_
*265 u1\.u0\.u0\.u0\._04_
*266 u1\.u0\.u0\.u0\._05_
*267 u1\.u0\.u0\.u0\._06_
*268 u1\.u0\.u0\.u0\._07_
*269 u1\.u0\.u0\.u1\._01_
*270 u1\.u0\.u0\.u1\._02_
*271 u1\.u0\.u0\.u1\._03_
*272 u1\.u0\.u0\.u1\._04_
*273 u1\.u0\.u0\.u1\._05_
*274 u1\.u0\.u0\.u1\._06_
*275 u1\.u0\.u0\.u1\._07_
*276 u1\.u0\.u1\.C4
*277 u1\.u0\.u1\.u0\._01_
*278 u1\.u0\.u1\.u0\._02_
*279 u1\.u0\.u1\.u0\._03_
*280 u1\.u0\.u1\.u0\._04_
*281 u1\.u0\.u1\.u0\._05_
*282 u1\.u0\.u1\.u0\._06_
*283 u1\.u0\.u1\.u0\._07_
*284 u1\.u0\.u1\.u1\._01_
*285 u1\.u0\.u1\.u1\._02_
*286 u1\.u0\.u1\.u1\._03_
*287 u1\.u0\.u1\.u1\._04_
*288 u1\.u0\.u1\.u1\._05_
*289 u1\.u0\.u1\.u1\._06_
*290 u1\.u0\.u1\.u1\._07_
*291 u1\.u1\.C8
*292 u1\.u1\.u0\.C4
*293 u1\.u1\.u0\.u0\._01_
*294 u1\.u1\.u0\.u0\._02_
*295 u1\.u1\.u0\.u0\._03_
*296 u1\.u1\.u0\.u0\._04_
*297 u1\.u1\.u0\.u0\._05_
*298 u1\.u1\.u0\.u0\._06_
*299 u1\.u1\.u0\.u0\._07_
*300 u1\.u1\.u0\.u1\._01_
*301 u1\.u1\.u0\.u1\._02_
*302 u1\.u1\.u0\.u1\._03_
*303 u1\.u1\.u0\.u1\._04_
*304 u1\.u1\.u0\.u1\._05_
*305 u1\.u1\.u0\.u1\._06_
*306 u1\.u1\.u0\.u1\._07_
*307 u1\.u1\.u1\.C4
*308 u1\.u1\.u1\.u0\._01_
*309 u1\.u1\.u1\.u0\._02_
*310 u1\.u1\.u1\.u0\._03_
*311 u1\.u1\.u1\.u0\._04_
*312 u1\.u1\.u1\.u0\._05_
*313 u1\.u1\.u1\.u0\._06_
*314 u1\.u1\.u1\.u0\._07_
*315 u1\.u1\.u1\.u1\._01_
*316 u1\.u1\.u1\.u1\._02_
*317 u1\.u1\.u1\.u1\._03_
*318 u1\.u1\.u1\.u1\._04_
*319 u1\.u1\.u1\.u1\._05_
*320 u1\.u1\.u1\.u1\._06_
*321 u1\.u1\.u1\.u1\._07_
*324 net1
*325 net2
*326 net3
*327 net4
*328 net5
*329 net6
*330 net7
*331 net8
*332 net9
*333 net10
*334 net11
*335 net12
*336 net13
*337 net14
*338 net15
*339 net16
*340 net17
*341 net18
*342 net19
*343 net20
*344 net21
*345 net22
*346 net23
*347 net24
*348 net25
*349 net26
*350 net27
*351 net28
*352 net29
*353 net30
*354 net31
*355 net32
*356 net33
*357 net34
*358 net35
*359 net36
*360 net37
*361 net38
*362 net39
*363 net40
*364 net41
*365 net42
*366 net43
*367 net44
*368 net45
*369 net46
*370 net47
*371 net48
*372 net49
*373 net50
*374 net51
*375 net52
*376 net53
*377 net54
*378 net55
*379 net56
*380 net57
*381 net58
*382 net59
*383 net60
*384 net61
*385 net62
*386 net63
*387 net64
*388 net65
*389 net66
*390 net67
*391 net68
*392 net69
*393 net70
*394 net71
*395 net72
*396 net73
*397 net74
*398 net75
*399 net76
*400 net77
*401 net78
*402 net79
*403 net80
*404 net81
*405 net82
*406 net83
*407 net84
*408 net85
*409 net86
*410 net87
*411 net88
*412 net89
*413 net90
*414 net91
*415 net92
*416 net93
*417 net94
*418 net95
*419 net96
*420 net97
*421 net98
*422 net99
*423 net100
*424 net101
*425 net102
*426 net103
*427 net104
*428 net105
*429 net106
*430 net107
*431 net108
*432 net109
*433 net110
*434 net111
*435 net112
*436 net113
*437 net114
*438 net115
*439 net116
*440 net117
*441 net118
*442 net119
*443 net120
*444 net121
*445 net122
*446 net123
*447 net124
*448 net125
*449 net126
*450 net127
*451 net128
*452 net129
*453 Cout
*454 Sum[0]
*455 Sum[10]
*456 Sum[11]
*457 Sum[12]
*458 Sum[13]
*459 Sum[14]
*460 Sum[15]
*461 Sum[16]
*462 Sum[17]
*463 Sum[18]
*464 Sum[19]
*465 Sum[1]
*466 Sum[20]
*467 Sum[21]
*468 Sum[22]
*469 Sum[23]
*470 Sum[24]
*471 Sum[25]
*472 Sum[26]
*473 Sum[27]
*474 Sum[28]
*475 Sum[29]
*476 Sum[2]
*477 Sum[30]
*478 Sum[31]
*479 Sum[32]
*480 Sum[33]
*481 Sum[34]
*482 Sum[35]
*483 Sum[36]
*484 Sum[37]
*485 Sum[38]
*486 Sum[39]
*487 Sum[3]
*488 Sum[40]
*489 Sum[41]
*490 Sum[42]
*491 Sum[43]
*492 Sum[44]
*493 Sum[45]
*494 Sum[46]
*495 Sum[47]
*496 Sum[48]
*497 Sum[49]
*498 Sum[4]
*499 Sum[50]
*500 Sum[51]
*501 Sum[52]
*502 Sum[53]
*503 Sum[54]
*504 Sum[55]
*505 Sum[56]
*506 Sum[57]
*507 Sum[58]
*508 Sum[59]
*509 Sum[5]
*510 Sum[60]
*511 Sum[61]
*512 Sum[62]
*513 Sum[63]
*514 Sum[6]
*515 Sum[7]
*516 Sum[8]
*517 Sum[9]
*518 net195
*519 net196
*520 u0\.u0\.u0\.u0\._13_
*521 u0\.u0\.u0\.u0\._14_
*522 u0\.u0\.u0\.u0\._15_
*523 u0\.u0\.u0\.u0\._16_
*524 u0\.u0\.u0\.u0\._17_
*525 u0\.u0\.u0\.u0\._18_
*526 u0\.u0\.u0\.u0\._19_
*527 u0\.u0\.u0\.u0\._20_
*528 u0\.u0\.u0\.u0\._21_
*529 u0\.u0\.u0\.u0\._22_
*530 u0\.u0\.u0\.u0\._23_
*531 u0\.u0\.u0\.u0\._30_
*532 u0\.u0\.u0\.u1\._13_
*533 u0\.u0\.u0\.u1\._14_
*534 u0\.u0\.u0\.u1\._15_
*535 u0\.u0\.u0\.u1\._16_
*536 u0\.u0\.u0\.u1\._17_
*537 u0\.u0\.u0\.u1\._18_
*538 u0\.u0\.u0\.u1\._19_
*539 u0\.u0\.u0\.u1\._20_
*540 u0\.u0\.u0\.u1\._21_
*541 u0\.u0\.u0\.u1\._22_
*542 u0\.u0\.u0\.u1\._23_
*543 u0\.u0\.u0\.u1\._30_
*544 u0\.u0\.u1\.u0\._13_
*545 u0\.u0\.u1\.u0\._14_
*546 u0\.u0\.u1\.u0\._15_
*547 u0\.u0\.u1\.u0\._16_
*548 u0\.u0\.u1\.u0\._17_
*549 u0\.u0\.u1\.u0\._18_
*550 u0\.u0\.u1\.u0\._19_
*551 u0\.u0\.u1\.u0\._20_
*552 u0\.u0\.u1\.u0\._21_
*553 u0\.u0\.u1\.u0\._22_
*554 u0\.u0\.u1\.u0\._23_
*555 u0\.u0\.u1\.u0\._30_
*556 u0\.u0\.u1\.u1\._13_
*557 u0\.u0\.u1\.u1\._14_
*558 u0\.u0\.u1\.u1\._15_
*559 u0\.u0\.u1\.u1\._16_
*560 u0\.u0\.u1\.u1\._17_
*561 u0\.u0\.u1\.u1\._18_
*562 u0\.u0\.u1\.u1\._19_
*563 u0\.u0\.u1\.u1\._20_
*564 u0\.u0\.u1\.u1\._21_
*565 u0\.u0\.u1\.u1\._22_
*566 u0\.u0\.u1\.u1\._23_
*567 u0\.u0\.u1\.u1\._30_
*568 u0\.u1\.u0\.u0\._13_
*569 u0\.u1\.u0\.u0\._14_
*570 u0\.u1\.u0\.u0\._15_
*571 u0\.u1\.u0\.u0\._16_
*572 u0\.u1\.u0\.u0\._17_
*573 u0\.u1\.u0\.u0\._18_
*574 u0\.u1\.u0\.u0\._19_
*575 u0\.u1\.u0\.u0\._20_
*576 u0\.u1\.u0\.u0\._21_
*577 u0\.u1\.u0\.u0\._22_
*578 u0\.u1\.u0\.u0\._23_
*579 u0\.u1\.u0\.u0\._30_
*580 u0\.u1\.u0\.u1\._13_
*581 u0\.u1\.u0\.u1\._14_
*582 u0\.u1\.u0\.u1\._15_
*583 u0\.u1\.u0\.u1\._16_
*584 u0\.u1\.u0\.u1\._17_
*585 u0\.u1\.u0\.u1\._18_
*586 u0\.u1\.u0\.u1\._19_
*587 u0\.u1\.u0\.u1\._20_
*588 u0\.u1\.u0\.u1\._21_
*589 u0\.u1\.u0\.u1\._22_
*590 u0\.u1\.u0\.u1\._23_
*591 u0\.u1\.u0\.u1\._30_
*592 u0\.u1\.u1\.u0\._13_
*593 u0\.u1\.u1\.u0\._14_
*594 u0\.u1\.u1\.u0\._15_
*595 u0\.u1\.u1\.u0\._16_
*596 u0\.u1\.u1\.u0\._17_
*597 u0\.u1\.u1\.u0\._18_
*598 u0\.u1\.u1\.u0\._19_
*599 u0\.u1\.u1\.u0\._20_
*600 u0\.u1\.u1\.u0\._21_
*601 u0\.u1\.u1\.u0\._22_
*602 u0\.u1\.u1\.u0\._23_
*603 u0\.u1\.u1\.u0\._30_
*604 u0\.u1\.u1\.u1\._13_
*605 u0\.u1\.u1\.u1\._14_
*606 u0\.u1\.u1\.u1\._15_
*607 u0\.u1\.u1\.u1\._16_
*608 u0\.u1\.u1\.u1\._17_
*609 u0\.u1\.u1\.u1\._18_
*610 u0\.u1\.u1\.u1\._19_
*611 u0\.u1\.u1\.u1\._20_
*612 u0\.u1\.u1\.u1\._21_
*613 u0\.u1\.u1\.u1\._22_
*614 u0\.u1\.u1\.u1\._23_
*615 u0\.u1\.u1\.u1\._30_
*616 u1\.u0\.u0\.u0\._13_
*617 u1\.u0\.u0\.u0\._14_
*618 u1\.u0\.u0\.u0\._15_
*619 u1\.u0\.u0\.u0\._16_
*620 u1\.u0\.u0\.u0\._17_
*621 u1\.u0\.u0\.u0\._18_
*622 u1\.u0\.u0\.u0\._19_
*623 u1\.u0\.u0\.u0\._20_
*624 u1\.u0\.u0\.u0\._21_
*625 u1\.u0\.u0\.u0\._22_
*626 u1\.u0\.u0\.u0\._23_
*627 u1\.u0\.u0\.u0\._30_
*628 u1\.u0\.u0\.u1\._13_
*629 u1\.u0\.u0\.u1\._14_
*630 u1\.u0\.u0\.u1\._15_
*631 u1\.u0\.u0\.u1\._16_
*632 u1\.u0\.u0\.u1\._17_
*633 u1\.u0\.u0\.u1\._18_
*634 u1\.u0\.u0\.u1\._19_
*635 u1\.u0\.u0\.u1\._20_
*636 u1\.u0\.u0\.u1\._21_
*637 u1\.u0\.u0\.u1\._22_
*638 u1\.u0\.u0\.u1\._23_
*639 u1\.u0\.u0\.u1\._30_
*640 u1\.u0\.u1\.u0\._13_
*641 u1\.u0\.u1\.u0\._14_
*642 u1\.u0\.u1\.u0\._15_
*643 u1\.u0\.u1\.u0\._16_
*644 u1\.u0\.u1\.u0\._17_
*645 u1\.u0\.u1\.u0\._18_
*646 u1\.u0\.u1\.u0\._19_
*647 u1\.u0\.u1\.u0\._20_
*648 u1\.u0\.u1\.u0\._21_
*649 u1\.u0\.u1\.u0\._22_
*650 u1\.u0\.u1\.u0\._23_
*651 u1\.u0\.u1\.u0\._30_
*652 u1\.u0\.u1\.u1\._13_
*653 u1\.u0\.u1\.u1\._14_
*654 u1\.u0\.u1\.u1\._15_
*655 u1\.u0\.u1\.u1\._16_
*656 u1\.u0\.u1\.u1\._17_
*657 u1\.u0\.u1\.u1\._18_
*658 u1\.u0\.u1\.u1\._19_
*659 u1\.u0\.u1\.u1\._20_
*660 u1\.u0\.u1\.u1\._21_
*661 u1\.u0\.u1\.u1\._22_
*662 u1\.u0\.u1\.u1\._23_
*663 u1\.u0\.u1\.u1\._30_
*664 u1\.u1\.u0\.u0\._13_
*665 u1\.u1\.u0\.u0\._14_
*666 u1\.u1\.u0\.u0\._15_
*667 u1\.u1\.u0\.u0\._16_
*668 u1\.u1\.u0\.u0\._17_
*669 u1\.u1\.u0\.u0\._18_
*670 u1\.u1\.u0\.u0\._19_
*671 u1\.u1\.u0\.u0\._20_
*672 u1\.u1\.u0\.u0\._21_
*673 u1\.u1\.u0\.u0\._22_
*674 u1\.u1\.u0\.u0\._23_
*675 u1\.u1\.u0\.u0\._30_
*676 u1\.u1\.u0\.u1\._13_
*677 u1\.u1\.u0\.u1\._14_
*678 u1\.u1\.u0\.u1\._15_
*679 u1\.u1\.u0\.u1\._16_
*680 u1\.u1\.u0\.u1\._17_
*681 u1\.u1\.u0\.u1\._18_
*682 u1\.u1\.u0\.u1\._19_
*683 u1\.u1\.u0\.u1\._20_
*684 u1\.u1\.u0\.u1\._21_
*685 u1\.u1\.u0\.u1\._22_
*686 u1\.u1\.u0\.u1\._23_
*687 u1\.u1\.u0\.u1\._30_
*688 u1\.u1\.u1\.u0\._13_
*689 u1\.u1\.u1\.u0\._14_
*690 u1\.u1\.u1\.u0\._15_
*691 u1\.u1\.u1\.u0\._16_
*692 u1\.u1\.u1\.u0\._17_
*693 u1\.u1\.u1\.u0\._18_
*694 u1\.u1\.u1\.u0\._19_
*695 u1\.u1\.u1\.u0\._20_
*696 u1\.u1\.u1\.u0\._21_
*697 u1\.u1\.u1\.u0\._22_
*698 u1\.u1\.u1\.u0\._23_
*699 u1\.u1\.u1\.u0\._30_
*700 u1\.u1\.u1\.u1\._13_
*701 u1\.u1\.u1\.u1\._14_
*702 u1\.u1\.u1\.u1\._15_
*703 u1\.u1\.u1\.u1\._16_
*704 u1\.u1\.u1\.u1\._17_
*705 u1\.u1\.u1\.u1\._18_
*706 u1\.u1\.u1\.u1\._19_
*707 u1\.u1\.u1\.u1\._20_
*708 u1\.u1\.u1\.u1\._21_
*709 u1\.u1\.u1\.u1\._22_
*710 u1\.u1\.u1\.u1\._23_
*711 u1\.u1\.u1\.u1\._30_
*712 TAP_TAPCELL_ROW_0_0
*713 TAP_TAPCELL_ROW_0_1
*714 TAP_TAPCELL_ROW_0_2
*715 TAP_TAPCELL_ROW_0_3
*716 TAP_TAPCELL_ROW_0_4
*717 TAP_TAPCELL_ROW_0_5
*718 TAP_TAPCELL_ROW_0_6
*719 TAP_TAPCELL_ROW_0_7
*720 TAP_TAPCELL_ROW_0_8
*721 TAP_TAPCELL_ROW_0_9
*722 TAP_TAPCELL_ROW_0_10
*723 TAP_TAPCELL_ROW_0_11
*724 TAP_TAPCELL_ROW_0_12
*725 TAP_TAPCELL_ROW_0_13
*726 TAP_TAPCELL_ROW_0_14
*727 TAP_TAPCELL_ROW_0_15
*728 TAP_TAPCELL_ROW_0_16
*729 TAP_TAPCELL_ROW_0_17
*730 TAP_TAPCELL_ROW_0_18
*731 TAP_TAPCELL_ROW_0_19
*732 TAP_TAPCELL_ROW_0_20
*733 TAP_TAPCELL_ROW_0_21
*734 TAP_TAPCELL_ROW_0_22
*735 TAP_TAPCELL_ROW_0_23
*736 TAP_TAPCELL_ROW_0_24
*737 TAP_TAPCELL_ROW_0_25
*738 TAP_TAPCELL_ROW_0_26
*739 TAP_TAPCELL_ROW_0_27
*740 TAP_TAPCELL_ROW_0_28
*741 TAP_TAPCELL_ROW_0_29
*742 TAP_TAPCELL_ROW_0_30
*743 TAP_TAPCELL_ROW_0_31
*744 TAP_TAPCELL_ROW_0_32
*745 TAP_TAPCELL_ROW_0_33
*746 TAP_TAPCELL_ROW_0_34
*747 TAP_TAPCELL_ROW_0_35
*748 TAP_TAPCELL_ROW_0_36
*749 TAP_TAPCELL_ROW_0_37
*750 TAP_TAPCELL_ROW_0_38
*751 TAP_TAPCELL_ROW_1_39
*752 TAP_TAPCELL_ROW_1_40
*753 TAP_TAPCELL_ROW_1_41
*754 TAP_TAPCELL_ROW_1_42
*755 TAP_TAPCELL_ROW_1_43
*756 TAP_TAPCELL_ROW_1_44
*757 TAP_TAPCELL_ROW_1_45
*758 TAP_TAPCELL_ROW_1_46
*759 TAP_TAPCELL_ROW_1_47
*760 TAP_TAPCELL_ROW_1_48
*761 TAP_TAPCELL_ROW_1_49
*762 TAP_TAPCELL_ROW_1_50
*763 TAP_TAPCELL_ROW_1_51
*764 TAP_TAPCELL_ROW_1_52
*765 TAP_TAPCELL_ROW_1_53
*766 TAP_TAPCELL_ROW_1_54
*767 TAP_TAPCELL_ROW_1_55
*768 TAP_TAPCELL_ROW_1_56
*769 TAP_TAPCELL_ROW_1_57
*770 TAP_TAPCELL_ROW_2_58
*771 TAP_TAPCELL_ROW_2_59
*772 TAP_TAPCELL_ROW_2_60
*773 TAP_TAPCELL_ROW_2_61
*774 TAP_TAPCELL_ROW_2_62
*775 TAP_TAPCELL_ROW_2_63
*776 TAP_TAPCELL_ROW_2_64
*777 TAP_TAPCELL_ROW_2_65
*778 TAP_TAPCELL_ROW_2_66
*779 TAP_TAPCELL_ROW_2_67
*780 TAP_TAPCELL_ROW_2_68
*781 TAP_TAPCELL_ROW_2_69
*782 TAP_TAPCELL_ROW_2_70
*783 TAP_TAPCELL_ROW_2_71
*784 TAP_TAPCELL_ROW_2_72
*785 TAP_TAPCELL_ROW_2_73
*786 TAP_TAPCELL_ROW_2_74
*787 TAP_TAPCELL_ROW_2_75
*788 TAP_TAPCELL_ROW_2_76
*789 TAP_TAPCELL_ROW_2_77
*790 TAP_TAPCELL_ROW_3_78
*791 TAP_TAPCELL_ROW_3_79
*792 TAP_TAPCELL_ROW_3_80
*793 TAP_TAPCELL_ROW_3_81
*794 TAP_TAPCELL_ROW_3_82
*795 TAP_TAPCELL_ROW_3_83
*796 TAP_TAPCELL_ROW_3_84
*797 TAP_TAPCELL_ROW_3_85
*798 TAP_TAPCELL_ROW_3_86
*799 TAP_TAPCELL_ROW_3_87
*800 TAP_TAPCELL_ROW_3_88
*801 TAP_TAPCELL_ROW_3_89
*802 TAP_TAPCELL_ROW_3_90
*803 TAP_TAPCELL_ROW_3_91
*804 TAP_TAPCELL_ROW_3_92
*805 TAP_TAPCELL_ROW_3_93
*806 TAP_TAPCELL_ROW_3_94
*807 TAP_TAPCELL_ROW_3_95
*808 TAP_TAPCELL_ROW_3_96
*809 TAP_TAPCELL_ROW_4_97
*810 TAP_TAPCELL_ROW_4_98
*811 TAP_TAPCELL_ROW_4_99
*812 TAP_TAPCELL_ROW_4_100
*813 TAP_TAPCELL_ROW_4_101
*814 TAP_TAPCELL_ROW_4_102
*815 TAP_TAPCELL_ROW_4_103
*816 TAP_TAPCELL_ROW_4_104
*817 TAP_TAPCELL_ROW_4_105
*818 TAP_TAPCELL_ROW_4_106
*819 TAP_TAPCELL_ROW_4_107
*820 TAP_TAPCELL_ROW_4_108
*821 TAP_TAPCELL_ROW_4_109
*822 TAP_TAPCELL_ROW_4_110
*823 TAP_TAPCELL_ROW_4_111
*824 TAP_TAPCELL_ROW_4_112
*825 TAP_TAPCELL_ROW_4_113
*826 TAP_TAPCELL_ROW_4_114
*827 TAP_TAPCELL_ROW_4_115
*828 TAP_TAPCELL_ROW_4_116
*829 TAP_TAPCELL_ROW_5_117
*830 TAP_TAPCELL_ROW_5_118
*831 TAP_TAPCELL_ROW_5_119
*832 TAP_TAPCELL_ROW_5_120
*833 TAP_TAPCELL_ROW_5_121
*834 TAP_TAPCELL_ROW_5_122
*835 TAP_TAPCELL_ROW_5_123
*836 TAP_TAPCELL_ROW_5_124
*837 TAP_TAPCELL_ROW_5_125
*838 TAP_TAPCELL_ROW_5_126
*839 TAP_TAPCELL_ROW_5_127
*840 TAP_TAPCELL_ROW_5_128
*841 TAP_TAPCELL_ROW_5_129
*842 TAP_TAPCELL_ROW_5_130
*843 TAP_TAPCELL_ROW_5_131
*844 TAP_TAPCELL_ROW_5_132
*845 TAP_TAPCELL_ROW_5_133
*846 TAP_TAPCELL_ROW_5_134
*847 TAP_TAPCELL_ROW_5_135
*848 TAP_TAPCELL_ROW_6_136
*849 TAP_TAPCELL_ROW_6_137
*850 TAP_TAPCELL_ROW_6_138
*851 TAP_TAPCELL_ROW_6_139
*852 TAP_TAPCELL_ROW_6_140
*853 TAP_TAPCELL_ROW_6_141
*854 TAP_TAPCELL_ROW_6_142
*855 TAP_TAPCELL_ROW_6_143
*856 TAP_TAPCELL_ROW_6_144
*857 TAP_TAPCELL_ROW_6_145
*858 TAP_TAPCELL_ROW_6_146
*859 TAP_TAPCELL_ROW_6_147
*860 TAP_TAPCELL_ROW_6_148
*861 TAP_TAPCELL_ROW_6_149
*862 TAP_TAPCELL_ROW_6_150
*863 TAP_TAPCELL_ROW_6_151
*864 TAP_TAPCELL_ROW_6_152
*865 TAP_TAPCELL_ROW_6_153
*866 TAP_TAPCELL_ROW_6_154
*867 TAP_TAPCELL_ROW_6_155
*868 TAP_TAPCELL_ROW_7_156
*869 TAP_TAPCELL_ROW_7_157
*870 TAP_TAPCELL_ROW_7_158
*871 TAP_TAPCELL_ROW_7_159
*872 TAP_TAPCELL_ROW_7_160
*873 TAP_TAPCELL_ROW_7_161
*874 TAP_TAPCELL_ROW_7_162
*875 TAP_TAPCELL_ROW_7_163
*876 TAP_TAPCELL_ROW_7_164
*877 TAP_TAPCELL_ROW_7_165
*878 TAP_TAPCELL_ROW_7_166
*879 TAP_TAPCELL_ROW_7_167
*880 TAP_TAPCELL_ROW_7_168
*881 TAP_TAPCELL_ROW_7_169
*882 TAP_TAPCELL_ROW_7_170
*883 TAP_TAPCELL_ROW_7_171
*884 TAP_TAPCELL_ROW_7_172
*885 TAP_TAPCELL_ROW_7_173
*886 TAP_TAPCELL_ROW_7_174
*887 TAP_TAPCELL_ROW_8_175
*888 TAP_TAPCELL_ROW_8_176
*889 TAP_TAPCELL_ROW_8_177
*890 TAP_TAPCELL_ROW_8_178
*891 TAP_TAPCELL_ROW_8_179
*892 TAP_TAPCELL_ROW_8_180
*893 TAP_TAPCELL_ROW_8_181
*894 TAP_TAPCELL_ROW_8_182
*895 TAP_TAPCELL_ROW_8_183
*896 TAP_TAPCELL_ROW_8_184
*897 TAP_TAPCELL_ROW_8_185
*898 TAP_TAPCELL_ROW_8_186
*899 TAP_TAPCELL_ROW_8_187
*900 TAP_TAPCELL_ROW_8_188
*901 TAP_TAPCELL_ROW_8_189
*902 TAP_TAPCELL_ROW_8_190
*903 TAP_TAPCELL_ROW_8_191
*904 TAP_TAPCELL_ROW_8_192
*905 TAP_TAPCELL_ROW_8_193
*906 TAP_TAPCELL_ROW_8_194
*907 TAP_TAPCELL_ROW_9_195
*908 TAP_TAPCELL_ROW_9_196
*909 TAP_TAPCELL_ROW_9_197
*910 TAP_TAPCELL_ROW_9_198
*911 TAP_TAPCELL_ROW_9_199
*912 TAP_TAPCELL_ROW_9_200
*913 TAP_TAPCELL_ROW_9_201
*914 TAP_TAPCELL_ROW_9_202
*915 TAP_TAPCELL_ROW_9_203
*916 TAP_TAPCELL_ROW_9_204
*917 TAP_TAPCELL_ROW_9_205
*918 TAP_TAPCELL_ROW_9_206
*919 TAP_TAPCELL_ROW_9_207
*920 TAP_TAPCELL_ROW_9_208
*921 TAP_TAPCELL_ROW_9_209
*922 TAP_TAPCELL_ROW_9_210
*923 TAP_TAPCELL_ROW_9_211
*924 TAP_TAPCELL_ROW_9_212
*925 TAP_TAPCELL_ROW_9_213
*926 TAP_TAPCELL_ROW_10_214
*927 TAP_TAPCELL_ROW_10_215
*928 TAP_TAPCELL_ROW_10_216
*929 TAP_TAPCELL_ROW_10_217
*930 TAP_TAPCELL_ROW_10_218
*931 TAP_TAPCELL_ROW_10_219
*932 TAP_TAPCELL_ROW_10_220
*933 TAP_TAPCELL_ROW_10_221
*934 TAP_TAPCELL_ROW_10_222
*935 TAP_TAPCELL_ROW_10_223
*936 TAP_TAPCELL_ROW_10_224
*937 TAP_TAPCELL_ROW_10_225
*938 TAP_TAPCELL_ROW_10_226
*939 TAP_TAPCELL_ROW_10_227
*940 TAP_TAPCELL_ROW_10_228
*941 TAP_TAPCELL_ROW_10_229
*942 TAP_TAPCELL_ROW_10_230
*943 TAP_TAPCELL_ROW_10_231
*944 TAP_TAPCELL_ROW_10_232
*945 TAP_TAPCELL_ROW_10_233
*946 TAP_TAPCELL_ROW_11_234
*947 TAP_TAPCELL_ROW_11_235
*948 TAP_TAPCELL_ROW_11_236
*949 TAP_TAPCELL_ROW_11_237
*950 TAP_TAPCELL_ROW_11_238
*951 TAP_TAPCELL_ROW_11_239
*952 TAP_TAPCELL_ROW_11_240
*953 TAP_TAPCELL_ROW_11_241
*954 TAP_TAPCELL_ROW_11_242
*955 TAP_TAPCELL_ROW_11_243
*956 TAP_TAPCELL_ROW_11_244
*957 TAP_TAPCELL_ROW_11_245
*958 TAP_TAPCELL_ROW_11_246
*959 TAP_TAPCELL_ROW_11_247
*960 TAP_TAPCELL_ROW_11_248
*961 TAP_TAPCELL_ROW_11_249
*962 TAP_TAPCELL_ROW_11_250
*963 TAP_TAPCELL_ROW_11_251
*964 TAP_TAPCELL_ROW_11_252
*965 TAP_TAPCELL_ROW_12_253
*966 TAP_TAPCELL_ROW_12_254
*967 TAP_TAPCELL_ROW_12_255
*968 TAP_TAPCELL_ROW_12_256
*969 TAP_TAPCELL_ROW_12_257
*970 TAP_TAPCELL_ROW_12_258
*971 TAP_TAPCELL_ROW_12_259
*972 TAP_TAPCELL_ROW_12_260
*973 TAP_TAPCELL_ROW_12_261
*974 TAP_TAPCELL_ROW_12_262
*975 TAP_TAPCELL_ROW_12_263
*976 TAP_TAPCELL_ROW_12_264
*977 TAP_TAPCELL_ROW_12_265
*978 TAP_TAPCELL_ROW_12_266
*979 TAP_TAPCELL_ROW_12_267
*980 TAP_TAPCELL_ROW_12_268
*981 TAP_TAPCELL_ROW_12_269
*982 TAP_TAPCELL_ROW_12_270
*983 TAP_TAPCELL_ROW_12_271
*984 TAP_TAPCELL_ROW_12_272
*985 TAP_TAPCELL_ROW_13_273
*986 TAP_TAPCELL_ROW_13_274
*987 TAP_TAPCELL_ROW_13_275
*988 TAP_TAPCELL_ROW_13_276
*989 TAP_TAPCELL_ROW_13_277
*990 TAP_TAPCELL_ROW_13_278
*991 TAP_TAPCELL_ROW_13_279
*992 TAP_TAPCELL_ROW_13_280
*993 TAP_TAPCELL_ROW_13_281
*994 TAP_TAPCELL_ROW_13_282
*995 TAP_TAPCELL_ROW_13_283
*996 TAP_TAPCELL_ROW_13_284
*997 TAP_TAPCELL_ROW_13_285
*998 TAP_TAPCELL_ROW_13_286
*999 TAP_TAPCELL_ROW_13_287
*1000 TAP_TAPCELL_ROW_13_288
*1001 TAP_TAPCELL_ROW_13_289
*1002 TAP_TAPCELL_ROW_13_290
*1003 TAP_TAPCELL_ROW_13_291
*1004 TAP_TAPCELL_ROW_14_292
*1005 TAP_TAPCELL_ROW_14_293
*1006 TAP_TAPCELL_ROW_14_294
*1007 TAP_TAPCELL_ROW_14_295
*1008 TAP_TAPCELL_ROW_14_296
*1009 TAP_TAPCELL_ROW_14_297
*1010 TAP_TAPCELL_ROW_14_298
*1011 TAP_TAPCELL_ROW_14_299
*1012 TAP_TAPCELL_ROW_14_300
*1013 TAP_TAPCELL_ROW_14_301
*1014 TAP_TAPCELL_ROW_14_302
*1015 TAP_TAPCELL_ROW_14_303
*1016 TAP_TAPCELL_ROW_14_304
*1017 TAP_TAPCELL_ROW_14_305
*1018 TAP_TAPCELL_ROW_14_306
*1019 TAP_TAPCELL_ROW_14_307
*1020 TAP_TAPCELL_ROW_14_308
*1021 TAP_TAPCELL_ROW_14_309
*1022 TAP_TAPCELL_ROW_14_310
*1023 TAP_TAPCELL_ROW_14_311
*1024 TAP_TAPCELL_ROW_15_312
*1025 TAP_TAPCELL_ROW_15_313
*1026 TAP_TAPCELL_ROW_15_314
*1027 TAP_TAPCELL_ROW_15_315
*1028 TAP_TAPCELL_ROW_15_316
*1029 TAP_TAPCELL_ROW_15_317
*1030 TAP_TAPCELL_ROW_15_318
*1031 TAP_TAPCELL_ROW_15_319
*1032 TAP_TAPCELL_ROW_15_320
*1033 TAP_TAPCELL_ROW_15_321
*1034 TAP_TAPCELL_ROW_15_322
*1035 TAP_TAPCELL_ROW_15_323
*1036 TAP_TAPCELL_ROW_15_324
*1037 TAP_TAPCELL_ROW_15_325
*1038 TAP_TAPCELL_ROW_15_326
*1039 TAP_TAPCELL_ROW_15_327
*1040 TAP_TAPCELL_ROW_15_328
*1041 TAP_TAPCELL_ROW_15_329
*1042 TAP_TAPCELL_ROW_15_330
*1043 TAP_TAPCELL_ROW_16_331
*1044 TAP_TAPCELL_ROW_16_332
*1045 TAP_TAPCELL_ROW_16_333
*1046 TAP_TAPCELL_ROW_16_334
*1047 TAP_TAPCELL_ROW_16_335
*1048 TAP_TAPCELL_ROW_16_336
*1049 TAP_TAPCELL_ROW_16_337
*1050 TAP_TAPCELL_ROW_16_338
*1051 TAP_TAPCELL_ROW_16_339
*1052 TAP_TAPCELL_ROW_16_340
*1053 TAP_TAPCELL_ROW_16_341
*1054 TAP_TAPCELL_ROW_16_342
*1055 TAP_TAPCELL_ROW_16_343
*1056 TAP_TAPCELL_ROW_16_344
*1057 TAP_TAPCELL_ROW_16_345
*1058 TAP_TAPCELL_ROW_16_346
*1059 TAP_TAPCELL_ROW_16_347
*1060 TAP_TAPCELL_ROW_16_348
*1061 TAP_TAPCELL_ROW_16_349
*1062 TAP_TAPCELL_ROW_16_350
*1063 TAP_TAPCELL_ROW_17_351
*1064 TAP_TAPCELL_ROW_17_352
*1065 TAP_TAPCELL_ROW_17_353
*1066 TAP_TAPCELL_ROW_17_354
*1067 TAP_TAPCELL_ROW_17_355
*1068 TAP_TAPCELL_ROW_17_356
*1069 TAP_TAPCELL_ROW_17_357
*1070 TAP_TAPCELL_ROW_17_358
*1071 TAP_TAPCELL_ROW_17_359
*1072 TAP_TAPCELL_ROW_17_360
*1073 TAP_TAPCELL_ROW_17_361
*1074 TAP_TAPCELL_ROW_17_362
*1075 TAP_TAPCELL_ROW_17_363
*1076 TAP_TAPCELL_ROW_17_364
*1077 TAP_TAPCELL_ROW_17_365
*1078 TAP_TAPCELL_ROW_17_366
*1079 TAP_TAPCELL_ROW_17_367
*1080 TAP_TAPCELL_ROW_17_368
*1081 TAP_TAPCELL_ROW_17_369
*1082 TAP_TAPCELL_ROW_18_370
*1083 TAP_TAPCELL_ROW_18_371
*1084 TAP_TAPCELL_ROW_18_372
*1085 TAP_TAPCELL_ROW_18_373
*1086 TAP_TAPCELL_ROW_18_374
*1087 TAP_TAPCELL_ROW_18_375
*1088 TAP_TAPCELL_ROW_18_376
*1089 TAP_TAPCELL_ROW_18_377
*1090 TAP_TAPCELL_ROW_18_378
*1091 TAP_TAPCELL_ROW_18_379
*1092 TAP_TAPCELL_ROW_18_380
*1093 TAP_TAPCELL_ROW_18_381
*1094 TAP_TAPCELL_ROW_18_382
*1095 TAP_TAPCELL_ROW_18_383
*1096 TAP_TAPCELL_ROW_18_384
*1097 TAP_TAPCELL_ROW_18_385
*1098 TAP_TAPCELL_ROW_18_386
*1099 TAP_TAPCELL_ROW_18_387
*1100 TAP_TAPCELL_ROW_18_388
*1101 TAP_TAPCELL_ROW_18_389
*1102 TAP_TAPCELL_ROW_19_390
*1103 TAP_TAPCELL_ROW_19_391
*1104 TAP_TAPCELL_ROW_19_392
*1105 TAP_TAPCELL_ROW_19_393
*1106 TAP_TAPCELL_ROW_19_394
*1107 TAP_TAPCELL_ROW_19_395
*1108 TAP_TAPCELL_ROW_19_396
*1109 TAP_TAPCELL_ROW_19_397
*1110 TAP_TAPCELL_ROW_19_398
*1111 TAP_TAPCELL_ROW_19_399
*1112 TAP_TAPCELL_ROW_19_400
*1113 TAP_TAPCELL_ROW_19_401
*1114 TAP_TAPCELL_ROW_19_402
*1115 TAP_TAPCELL_ROW_19_403
*1116 TAP_TAPCELL_ROW_19_404
*1117 TAP_TAPCELL_ROW_19_405
*1118 TAP_TAPCELL_ROW_19_406
*1119 TAP_TAPCELL_ROW_19_407
*1120 TAP_TAPCELL_ROW_19_408
*1121 TAP_TAPCELL_ROW_20_409
*1122 TAP_TAPCELL_ROW_20_410
*1123 TAP_TAPCELL_ROW_20_411
*1124 TAP_TAPCELL_ROW_20_412
*1125 TAP_TAPCELL_ROW_20_413
*1126 TAP_TAPCELL_ROW_20_414
*1127 TAP_TAPCELL_ROW_20_415
*1128 TAP_TAPCELL_ROW_20_416
*1129 TAP_TAPCELL_ROW_20_417
*1130 TAP_TAPCELL_ROW_20_418
*1131 TAP_TAPCELL_ROW_20_419
*1132 TAP_TAPCELL_ROW_20_420
*1133 TAP_TAPCELL_ROW_20_421
*1134 TAP_TAPCELL_ROW_20_422
*1135 TAP_TAPCELL_ROW_20_423
*1136 TAP_TAPCELL_ROW_20_424
*1137 TAP_TAPCELL_ROW_20_425
*1138 TAP_TAPCELL_ROW_20_426
*1139 TAP_TAPCELL_ROW_20_427
*1140 TAP_TAPCELL_ROW_20_428
*1141 TAP_TAPCELL_ROW_21_429
*1142 TAP_TAPCELL_ROW_21_430
*1143 TAP_TAPCELL_ROW_21_431
*1144 TAP_TAPCELL_ROW_21_432
*1145 TAP_TAPCELL_ROW_21_433
*1146 TAP_TAPCELL_ROW_21_434
*1147 TAP_TAPCELL_ROW_21_435
*1148 TAP_TAPCELL_ROW_21_436
*1149 TAP_TAPCELL_ROW_21_437
*1150 TAP_TAPCELL_ROW_21_438
*1151 TAP_TAPCELL_ROW_21_439
*1152 TAP_TAPCELL_ROW_21_440
*1153 TAP_TAPCELL_ROW_21_441
*1154 TAP_TAPCELL_ROW_21_442
*1155 TAP_TAPCELL_ROW_21_443
*1156 TAP_TAPCELL_ROW_21_444
*1157 TAP_TAPCELL_ROW_21_445
*1158 TAP_TAPCELL_ROW_21_446
*1159 TAP_TAPCELL_ROW_21_447
*1160 TAP_TAPCELL_ROW_22_448
*1161 TAP_TAPCELL_ROW_22_449
*1162 TAP_TAPCELL_ROW_22_450
*1163 TAP_TAPCELL_ROW_22_451
*1164 TAP_TAPCELL_ROW_22_452
*1165 TAP_TAPCELL_ROW_22_453
*1166 TAP_TAPCELL_ROW_22_454
*1167 TAP_TAPCELL_ROW_22_455
*1168 TAP_TAPCELL_ROW_22_456
*1169 TAP_TAPCELL_ROW_22_457
*1170 TAP_TAPCELL_ROW_22_458
*1171 TAP_TAPCELL_ROW_22_459
*1172 TAP_TAPCELL_ROW_22_460
*1173 TAP_TAPCELL_ROW_22_461
*1174 TAP_TAPCELL_ROW_22_462
*1175 TAP_TAPCELL_ROW_22_463
*1176 TAP_TAPCELL_ROW_22_464
*1177 TAP_TAPCELL_ROW_22_465
*1178 TAP_TAPCELL_ROW_22_466
*1179 TAP_TAPCELL_ROW_22_467
*1180 TAP_TAPCELL_ROW_23_468
*1181 TAP_TAPCELL_ROW_23_469
*1182 TAP_TAPCELL_ROW_23_470
*1183 TAP_TAPCELL_ROW_23_471
*1184 TAP_TAPCELL_ROW_23_472
*1185 TAP_TAPCELL_ROW_23_473
*1186 TAP_TAPCELL_ROW_23_474
*1187 TAP_TAPCELL_ROW_23_475
*1188 TAP_TAPCELL_ROW_23_476
*1189 TAP_TAPCELL_ROW_23_477
*1190 TAP_TAPCELL_ROW_23_478
*1191 TAP_TAPCELL_ROW_23_479
*1192 TAP_TAPCELL_ROW_23_480
*1193 TAP_TAPCELL_ROW_23_481
*1194 TAP_TAPCELL_ROW_23_482
*1195 TAP_TAPCELL_ROW_23_483
*1196 TAP_TAPCELL_ROW_23_484
*1197 TAP_TAPCELL_ROW_23_485
*1198 TAP_TAPCELL_ROW_23_486
*1199 TAP_TAPCELL_ROW_24_487
*1200 TAP_TAPCELL_ROW_24_488
*1201 TAP_TAPCELL_ROW_24_489
*1202 TAP_TAPCELL_ROW_24_490
*1203 TAP_TAPCELL_ROW_24_491
*1204 TAP_TAPCELL_ROW_24_492
*1205 TAP_TAPCELL_ROW_24_493
*1206 TAP_TAPCELL_ROW_24_494
*1207 TAP_TAPCELL_ROW_24_495
*1208 TAP_TAPCELL_ROW_24_496
*1209 TAP_TAPCELL_ROW_24_497
*1210 TAP_TAPCELL_ROW_24_498
*1211 TAP_TAPCELL_ROW_24_499
*1212 TAP_TAPCELL_ROW_24_500
*1213 TAP_TAPCELL_ROW_24_501
*1214 TAP_TAPCELL_ROW_24_502
*1215 TAP_TAPCELL_ROW_24_503
*1216 TAP_TAPCELL_ROW_24_504
*1217 TAP_TAPCELL_ROW_24_505
*1218 TAP_TAPCELL_ROW_24_506
*1219 TAP_TAPCELL_ROW_25_507
*1220 TAP_TAPCELL_ROW_25_508
*1221 TAP_TAPCELL_ROW_25_509
*1222 TAP_TAPCELL_ROW_25_510
*1223 TAP_TAPCELL_ROW_25_511
*1224 TAP_TAPCELL_ROW_25_512
*1225 TAP_TAPCELL_ROW_25_513
*1226 TAP_TAPCELL_ROW_25_514
*1227 TAP_TAPCELL_ROW_25_515
*1228 TAP_TAPCELL_ROW_25_516
*1229 TAP_TAPCELL_ROW_25_517
*1230 TAP_TAPCELL_ROW_25_518
*1231 TAP_TAPCELL_ROW_25_519
*1232 TAP_TAPCELL_ROW_25_520
*1233 TAP_TAPCELL_ROW_25_521
*1234 TAP_TAPCELL_ROW_25_522
*1235 TAP_TAPCELL_ROW_25_523
*1236 TAP_TAPCELL_ROW_25_524
*1237 TAP_TAPCELL_ROW_25_525
*1238 TAP_TAPCELL_ROW_26_526
*1239 TAP_TAPCELL_ROW_26_527
*1240 TAP_TAPCELL_ROW_26_528
*1241 TAP_TAPCELL_ROW_26_529
*1242 TAP_TAPCELL_ROW_26_530
*1243 TAP_TAPCELL_ROW_26_531
*1244 TAP_TAPCELL_ROW_26_532
*1245 TAP_TAPCELL_ROW_26_533
*1246 TAP_TAPCELL_ROW_26_534
*1247 TAP_TAPCELL_ROW_26_535
*1248 TAP_TAPCELL_ROW_26_536
*1249 TAP_TAPCELL_ROW_26_537
*1250 TAP_TAPCELL_ROW_26_538
*1251 TAP_TAPCELL_ROW_26_539
*1252 TAP_TAPCELL_ROW_26_540
*1253 TAP_TAPCELL_ROW_26_541
*1254 TAP_TAPCELL_ROW_26_542
*1255 TAP_TAPCELL_ROW_26_543
*1256 TAP_TAPCELL_ROW_26_544
*1257 TAP_TAPCELL_ROW_26_545
*1258 TAP_TAPCELL_ROW_27_546
*1259 TAP_TAPCELL_ROW_27_547
*1260 TAP_TAPCELL_ROW_27_548
*1261 TAP_TAPCELL_ROW_27_549
*1262 TAP_TAPCELL_ROW_27_550
*1263 TAP_TAPCELL_ROW_27_551
*1264 TAP_TAPCELL_ROW_27_552
*1265 TAP_TAPCELL_ROW_27_553
*1266 TAP_TAPCELL_ROW_27_554
*1267 TAP_TAPCELL_ROW_27_555
*1268 TAP_TAPCELL_ROW_27_556
*1269 TAP_TAPCELL_ROW_27_557
*1270 TAP_TAPCELL_ROW_27_558
*1271 TAP_TAPCELL_ROW_27_559
*1272 TAP_TAPCELL_ROW_27_560
*1273 TAP_TAPCELL_ROW_27_561
*1274 TAP_TAPCELL_ROW_27_562
*1275 TAP_TAPCELL_ROW_27_563
*1276 TAP_TAPCELL_ROW_27_564
*1277 TAP_TAPCELL_ROW_28_565
*1278 TAP_TAPCELL_ROW_28_566
*1279 TAP_TAPCELL_ROW_28_567
*1280 TAP_TAPCELL_ROW_28_568
*1281 TAP_TAPCELL_ROW_28_569
*1282 TAP_TAPCELL_ROW_28_570
*1283 TAP_TAPCELL_ROW_28_571
*1284 TAP_TAPCELL_ROW_28_572
*1285 TAP_TAPCELL_ROW_28_573
*1286 TAP_TAPCELL_ROW_28_574
*1287 TAP_TAPCELL_ROW_28_575
*1288 TAP_TAPCELL_ROW_28_576
*1289 TAP_TAPCELL_ROW_28_577
*1290 TAP_TAPCELL_ROW_28_578
*1291 TAP_TAPCELL_ROW_28_579
*1292 TAP_TAPCELL_ROW_28_580
*1293 TAP_TAPCELL_ROW_28_581
*1294 TAP_TAPCELL_ROW_28_582
*1295 TAP_TAPCELL_ROW_28_583
*1296 TAP_TAPCELL_ROW_28_584
*1297 TAP_TAPCELL_ROW_29_585
*1298 TAP_TAPCELL_ROW_29_586
*1299 TAP_TAPCELL_ROW_29_587
*1300 TAP_TAPCELL_ROW_29_588
*1301 TAP_TAPCELL_ROW_29_589
*1302 TAP_TAPCELL_ROW_29_590
*1303 TAP_TAPCELL_ROW_29_591
*1304 TAP_TAPCELL_ROW_29_592
*1305 TAP_TAPCELL_ROW_29_593
*1306 TAP_TAPCELL_ROW_29_594
*1307 TAP_TAPCELL_ROW_29_595
*1308 TAP_TAPCELL_ROW_29_596
*1309 TAP_TAPCELL_ROW_29_597
*1310 TAP_TAPCELL_ROW_29_598
*1311 TAP_TAPCELL_ROW_29_599
*1312 TAP_TAPCELL_ROW_29_600
*1313 TAP_TAPCELL_ROW_29_601
*1314 TAP_TAPCELL_ROW_29_602
*1315 TAP_TAPCELL_ROW_29_603
*1316 TAP_TAPCELL_ROW_30_604
*1317 TAP_TAPCELL_ROW_30_605
*1318 TAP_TAPCELL_ROW_30_606
*1319 TAP_TAPCELL_ROW_30_607
*1320 TAP_TAPCELL_ROW_30_608
*1321 TAP_TAPCELL_ROW_30_609
*1322 TAP_TAPCELL_ROW_30_610
*1323 TAP_TAPCELL_ROW_30_611